LTspice 24.0.9 for Windows
Circuit: * C:\users\lukas\Desktop\Link to work\git\LMWB\Peperoni-Ripieni\Simulations\LTSpice\PWM-Filter.asc
Start Time: Wed Dec 11 13:18:19 2024
solver = Normal
Maximum thread count: 4
tnom = 27
temp = 27
method = modified trap
.OP point found by inspection.
Total elapsed time: 2.145 seconds.

